&clm_inparm 
hist_mfilt = 365
hist_nhtfrq = -24
hist_dov2xy = .true., .false.
hist_fincl1 = 'Rnet', 'ALBD' ,'ALBGRD' ,'ALBGRI' ,'ALBI' ,'RAIN','TOTPFTC','TOTPFTN','EFLX_SOIL_GRND','EFLX_GNET'
finidat = '/home/grifbake/fyuan/Model/ELM_SPRUCE/run/PE-QFR_I1850CLM45CN_finalspinup/run/PE-QFR_I1850CLM45CN_finalspinup.clm2.r.0051-01-01-00000.nc '
 fsurdat = '/home/grifbake/fyuan/Model/CLM_SPRUCE/inputdata/lnd/clm2/surfdata_map/surfdata_1x1pt_PE-QFR.nc'
fpftdyn = '/home/grifbake/fyuan/Model/CLM_SPRUCE/inputdata/lnd/clm2/surfdata_map/surfdata.pftdyn_1x1pt_PE-QFR.nc'
 fpftcon = '/home/grifbake/fyuan/Model/CLM_SPRUCE/inputdata/lnd/clm2/paramdata/clm_params_PE-QFR_Iquitos.nc'
 stream_fldfilename_ndep = '/home/grifbake/fyuan/Model/CLM_SPRUCE/inputdata/lnd/clm2/ndepdata/fndep_clm_hist_simyr1849-2006_1x1pt_PE-QFR.nc'
  spinup_state =0 
 /
/ 
